Version 4
SHEET 1 6760 3956
WIRE 4224 -848 2304 -848
WIRE 2240 -832 -560 -832
WIRE 2560 -720 2464 -720
WIRE 736 -704 640 -704
WIRE 912 -704 800 -704
WIRE 2464 -624 2464 -720
WIRE 736 -608 736 -624
WIRE 640 -592 640 -704
WIRE 704 -592 640 -592
WIRE 912 -576 912 -704
WIRE 912 -576 768 -576
WIRE 704 -560 672 -560
WIRE 1344 -544 1120 -544
WIRE 1552 -544 1344 -544
WIRE 1728 -544 1632 -544
WIRE 1888 -544 1792 -544
WIRE 176 -528 16 -528
WIRE 736 -528 736 -544
WIRE 1120 -528 1120 -544
WIRE 1344 -528 1344 -544
WIRE 368 -512 288 -512
WIRE 480 -512 448 -512
WIRE 2464 -512 2464 -544
WIRE 2592 -512 2464 -512
WIRE 2768 -512 2656 -512
WIRE 2864 -512 2768 -512
WIRE 912 -480 912 -576
WIRE 1280 -480 1248 -480
WIRE 1424 -480 1376 -480
WIRE 16 -464 16 -528
WIRE 176 -464 176 -528
WIRE 2464 -464 2464 -512
WIRE 3472 -448 3472 -496
WIRE 1120 -416 1120 -448
WIRE 1712 -416 1648 -416
WIRE 1888 -416 1888 -544
WIRE 1888 -416 1792 -416
WIRE 288 -384 288 -512
WIRE 368 -384 288 -384
WIRE 496 -384 448 -384
WIRE 912 -368 912 -400
WIRE 912 -368 832 -368
WIRE 976 -368 912 -368
WIRE 16 -352 16 -384
WIRE 1744 -336 1744 -352
WIRE 3472 -336 3472 -368
WIRE 832 -320 832 -368
WIRE 976 -320 976 -368
WIRE 1248 -320 1248 -480
WIRE 1296 -320 1248 -320
WIRE 1424 -320 1424 -480
WIRE 1424 -320 1360 -320
WIRE 1504 -320 1424 -320
WIRE 1648 -320 1648 -416
WIRE 1648 -320 1584 -320
WIRE 1712 -320 1648 -320
WIRE 400 -304 400 -320
WIRE 1888 -304 1888 -416
WIRE 1888 -304 1776 -304
WIRE 176 -288 176 -384
WIRE 288 -288 288 -384
WIRE 288 -288 176 -288
WIRE 368 -288 288 -288
WIRE 1712 -288 1648 -288
WIRE 3008 -288 2976 -288
WIRE 496 -272 496 -384
WIRE 496 -272 432 -272
WIRE 768 -272 496 -272
WIRE 1072 -272 1040 -272
WIRE 368 -256 176 -256
WIRE 1744 -256 1744 -272
WIRE 2768 -256 2768 -512
WIRE 1648 -240 1648 -288
WIRE 1696 -240 1648 -240
WIRE 400 -224 400 -240
WIRE 1424 -224 1424 -320
WIRE 1488 -224 1424 -224
WIRE -672 -208 -1392 -208
WIRE 2976 -208 2976 -288
WIRE 1328 -192 1328 -208
WIRE 2944 -192 2896 -192
WIRE 3712 -192 3488 -192
WIRE 640 -176 640 -592
WIRE 832 -176 832 -224
WIRE 832 -176 640 -176
WIRE 976 -176 976 -224
WIRE 1248 -176 1248 -320
WIRE 1248 -176 976 -176
WIRE 1296 -176 1248 -176
WIRE 3072 -176 3072 -288
WIRE 3072 -176 3056 -176
WIRE 1424 -160 1424 -224
WIRE 1424 -160 1360 -160
WIRE 1472 -160 1424 -160
WIRE 1696 -160 1696 -240
WIRE 832 -144 832 -176
WIRE 1296 -144 1232 -144
WIRE 3216 -144 3120 -144
WIRE 3344 -144 3216 -144
WIRE 3488 -144 3488 -192
WIRE 3488 -144 3408 -144
WIRE 3504 -144 3488 -144
WIRE 3712 -144 3712 -192
WIRE -1248 -112 -1248 -128
WIRE -1248 -112 -1296 -112
WIRE -1200 -112 -1248 -112
WIRE 1328 -112 1328 -128
WIRE 3088 -112 3088 -160
WIRE 3104 -112 3088 -112
WIRE 3216 -112 3216 -144
WIRE 2768 -96 2768 -176
WIRE 2784 -96 2768 -96
WIRE 2944 -96 2784 -96
WIRE -1200 -80 -1200 -112
WIRE 3488 -80 3408 -80
WIRE 3504 -80 3488 -80
WIRE -1296 -64 -1296 -112
WIRE 3104 -64 3104 -112
WIRE -880 -48 -960 -48
WIRE -784 -48 -880 -48
WIRE 1696 -48 1696 -80
WIRE 2784 -48 2784 -96
WIRE 1472 -32 1472 -160
WIRE 1488 -32 1472 -32
WIRE 1600 -32 1568 -32
WIRE 2896 -32 2896 -192
WIRE 2976 -32 2976 -80
WIRE 2976 -32 2896 -32
WIRE 3056 -32 3056 -112
WIRE 3056 -32 3040 -32
WIRE 3216 -32 3216 -48
WIRE 832 -16 832 -64
WIRE 1648 -16 1648 -32
WIRE 3488 -16 3488 -80
WIRE 3536 -16 3488 -16
WIRE 3712 -16 3712 -64
WIRE 3712 -16 3536 -16
WIRE 1600 0 1600 -32
WIRE 1616 0 1600 0
WIRE -784 16 -784 -48
WIRE 1776 16 1680 16
WIRE 1936 16 1856 16
WIRE 2096 16 2016 16
WIRE 3056 16 3056 -32
WIRE -960 32 -960 -48
WIRE 1616 32 1600 32
WIRE -1296 48 -1296 0
WIRE -1200 48 -1200 0
WIRE -1200 48 -1296 48
WIRE -1152 48 -1200 48
WIRE 2096 48 2096 16
WIRE 1472 64 1472 -32
WIRE 1488 64 1472 64
WIRE 1584 64 1568 64
WIRE 1600 64 1600 32
WIRE 1600 64 1584 64
WIRE 1648 64 1648 48
WIRE 2096 64 2096 48
WIRE 2464 80 2464 -384
WIRE 2784 80 2784 32
WIRE 2784 80 2464 80
WIRE 2896 80 2896 -32
WIRE 2896 80 2784 80
WIRE 3104 80 3104 0
WIRE 3104 80 2896 80
WIRE 3216 80 3216 48
WIRE 3216 80 3104 80
WIRE 3408 80 3408 -80
WIRE 3408 80 3216 80
WIRE -1296 112 -1296 48
WIRE -1200 112 -1200 48
WIRE 1584 112 1584 64
WIRE -960 144 -960 112
WIRE -784 144 -784 80
WIRE -784 144 -960 144
WIRE 2304 176 2304 -848
WIRE 4224 176 4224 -848
WIRE 4224 176 2304 176
WIRE -960 192 -960 144
WIRE 1584 208 1584 176
WIRE -1296 240 -1296 176
WIRE -1248 240 -1296 240
WIRE -1200 240 -1200 192
WIRE -1200 240 -1248 240
WIRE -1248 256 -1248 240
WIRE -1392 352 -1392 -208
WIRE -672 352 -672 -208
WIRE -672 352 -1392 352
WIRE -560 352 -560 -832
WIRE 2240 352 2240 -832
WIRE 2240 352 -560 352
WIRE 1776 560 -1456 560
WIRE 3600 576 1872 576
WIRE 4992 576 3728 576
WIRE 3424 688 2176 688
WIRE 4400 752 4272 752
WIRE 2176 768 2176 688
WIRE 2320 768 2176 768
WIRE 2368 768 2320 768
WIRE 2944 768 2432 768
WIRE 2320 848 2320 768
WIRE 2368 848 2320 848
WIRE 2608 848 2432 848
WIRE 3936 848 3856 848
WIRE 4176 848 4016 848
WIRE 4272 848 4272 752
WIRE 4272 848 4256 848
WIRE 4304 848 4272 848
WIRE 4400 848 4400 752
WIRE 4400 848 4384 848
WIRE 4448 848 4400 848
WIRE 592 928 464 928
WIRE 2608 928 2608 848
WIRE 2944 928 2944 768
WIRE -176 944 -336 944
WIRE -16 944 -96 944
WIRE 240 944 80 944
WIRE 3856 976 3856 848
WIRE 3968 976 3856 976
WIRE 4448 992 4448 848
WIRE 4640 992 4448 992
WIRE 4736 992 4640 992
WIRE -16 1024 -16 944
WIRE 80 1024 80 944
WIRE 80 1024 -16 1024
WIRE 128 1024 80 1024
WIRE 240 1024 240 944
WIRE 240 1024 208 1024
WIRE 272 1024 240 1024
WIRE 432 1024 352 1024
WIRE 464 1024 464 928
WIRE 464 1024 432 1024
WIRE 496 1024 464 1024
WIRE 592 1024 592 928
WIRE 592 1024 576 1024
WIRE 624 1024 592 1024
WIRE 768 1024 704 1024
WIRE 2608 1040 2608 1008
WIRE 2688 1040 2608 1040
WIRE 2944 1040 2944 1008
WIRE 3024 1040 2944 1040
WIRE 2608 1056 2608 1040
WIRE 2944 1056 2944 1040
WIRE 80 1072 80 1024
WIRE 4272 1088 4272 1072
WIRE 3968 1104 3968 976
WIRE 4240 1104 3968 1104
WIRE -384 1120 -656 1120
WIRE 432 1120 432 1024
WIRE 512 1120 432 1120
WIRE 3968 1120 3968 1104
WIRE 4416 1120 4304 1120
WIRE 4448 1120 4448 992
WIRE 4448 1120 4416 1120
WIRE 4512 1120 4448 1120
WIRE 4640 1120 4640 992
WIRE 4640 1120 4576 1120
WIRE 4240 1136 4080 1136
WIRE -656 1184 -656 1120
WIRE 2608 1184 2608 1136
WIRE 2608 1184 1984 1184
WIRE 2688 1184 2688 1040
WIRE 2688 1184 2608 1184
WIRE 2944 1184 2944 1136
WIRE 2944 1184 2688 1184
WIRE 3024 1184 3024 1040
WIRE 3024 1184 2944 1184
WIRE 4272 1184 4272 1152
WIRE 3968 1216 3968 1184
WIRE 3968 1216 3888 1216
WIRE -384 1248 -384 1120
WIRE -336 1248 -336 944
WIRE -336 1248 -384 1248
WIRE -176 1248 -336 1248
WIRE -32 1248 -112 1248
WIRE 128 1248 48 1248
WIRE 192 1248 128 1248
WIRE 432 1248 432 1120
WIRE 432 1248 256 1248
WIRE 768 1248 768 1024
WIRE 816 1248 768 1248
WIRE 944 1248 880 1248
WIRE 3968 1264 3968 1216
WIRE 4416 1280 4416 1120
WIRE 4416 1280 4368 1280
WIRE 4640 1296 4624 1296
WIRE 4848 1296 4640 1296
WIRE 1984 1312 1984 1184
WIRE 3968 1376 3968 1344
WIRE 4080 1376 4080 1136
WIRE 4080 1376 3968 1376
WIRE 4128 1376 4080 1376
WIRE 4288 1376 4208 1376
WIRE 4416 1376 4416 1280
WIRE 4416 1376 4288 1376
WIRE -176 1408 -240 1408
WIRE -32 1408 -112 1408
WIRE 128 1408 128 1248
WIRE 128 1408 48 1408
WIRE 224 1408 128 1408
WIRE 416 1408 304 1408
WIRE 944 1408 944 1248
WIRE 944 1408 416 1408
WIRE 2368 1408 2368 1328
WIRE 3968 1408 3968 1376
WIRE 1984 1472 1984 1392
WIRE 2064 1472 1984 1472
WIRE 2240 1472 2240 1440
WIRE 2240 1472 2144 1472
WIRE 2320 1472 2240 1472
WIRE 4640 1488 4640 1296
WIRE 4640 1488 4608 1488
WIRE -1120 1520 -1280 1520
WIRE 2592 1520 2592 1504
WIRE 3968 1520 3968 1488
WIRE 3968 1520 3888 1520
WIRE -240 1536 -240 1408
WIRE -192 1536 -240 1536
WIRE 0 1536 -112 1536
WIRE 2368 1536 2368 1504
WIRE 2512 1536 2512 1488
WIRE 2512 1536 2368 1536
WIRE 2560 1536 2512 1536
WIRE 4288 1536 4288 1376
WIRE 4336 1536 4288 1536
WIRE 4608 1536 4608 1488
WIRE 4608 1536 4416 1536
WIRE 4640 1536 4608 1536
WIRE 2720 1552 2624 1552
WIRE 3424 1552 3424 688
WIRE 3424 1552 2720 1552
WIRE 272 1568 272 1552
WIRE 1984 1568 1984 1472
WIRE 2368 1568 2368 1536
WIRE 2560 1568 2480 1568
WIRE 3968 1568 3968 1520
WIRE -1280 1584 -1280 1520
WIRE 128 1584 128 1408
WIRE 240 1584 128 1584
WIRE 416 1600 416 1408
WIRE 416 1600 304 1600
WIRE 1168 1600 1168 1456
WIRE 1168 1600 416 1600
WIRE 1216 1600 1168 1600
WIRE 1344 1600 1344 1456
WIRE 1344 1600 1312 1600
WIRE 1536 1600 1344 1600
WIRE 1680 1600 1536 1600
WIRE 0 1616 0 1536
WIRE 240 1616 0 1616
WIRE 2592 1616 2592 1584
WIRE 4288 1616 4288 1536
WIRE 4464 1616 4288 1616
WIRE -976 1664 -1024 1664
WIRE 0 1664 0 1616
WIRE 272 1664 272 1632
WIRE 4608 1664 4608 1536
WIRE 3968 1696 3968 1648
WIRE 4096 1696 3968 1696
WIRE 4336 1696 4176 1696
WIRE 4464 1696 4464 1616
WIRE 4464 1696 4400 1696
WIRE -1120 1712 -1120 1520
WIRE -912 1712 -1120 1712
WIRE 1984 1728 1984 1632
WIRE 2064 1728 1984 1728
WIRE 2240 1728 2144 1728
WIRE 512 1744 512 1120
WIRE 512 1744 -48 1744
WIRE 1040 1760 1024 1760
WIRE 1280 1760 1280 1648
WIRE 1280 1760 1120 1760
WIRE 2368 1760 2368 1648
WIRE 1984 1776 1984 1728
WIRE 3968 1792 3968 1696
WIRE -912 1808 -912 1712
WIRE 1024 1808 1024 1760
WIRE 1024 1808 832 1808
WIRE 4608 1808 4608 1728
WIRE 1280 1824 1280 1760
WIRE 1536 1824 1536 1600
WIRE 2064 1888 1984 1888
WIRE 2240 1888 2240 1728
WIRE 2240 1888 2144 1888
WIRE 2480 1888 2480 1568
WIRE 2480 1888 2240 1888
WIRE 2544 1888 2480 1888
WIRE 2720 1888 2720 1552
WIRE 2720 1888 2624 1888
WIRE 3968 1904 3968 1856
WIRE -912 1920 -912 1888
WIRE -656 1920 -912 1920
WIRE -912 1952 -912 1920
WIRE 1280 1952 1280 1904
WIRE 1536 1952 1536 1904
WIRE -48 1984 -48 1744
WIRE 1872 2016 1872 576
WIRE 3600 2016 3600 576
WIRE 3600 2016 1872 2016
WIRE 3728 2016 3728 576
WIRE 4992 2016 4992 576
WIRE 4992 2016 3728 2016
WIRE -656 2048 -656 1920
WIRE -592 2048 -656 2048
WIRE -432 2048 -512 2048
WIRE -288 2048 -432 2048
WIRE -128 2048 -208 2048
WIRE -96 2048 -128 2048
WIRE -1136 2144 -1232 2144
WIRE -912 2144 -912 2032
WIRE -912 2144 -1056 2144
WIRE -48 2176 -48 2080
WIRE -592 2208 -656 2208
WIRE -432 2208 -432 2048
WIRE -432 2208 -512 2208
WIRE -288 2208 -352 2208
WIRE -128 2208 -128 2048
WIRE -128 2208 -208 2208
WIRE -1456 2384 -1456 560
WIRE 1776 2384 1776 560
WIRE 1776 2384 -1456 2384
FLAG -960 192 0
FLAG -880 -48 BP
FLAG 16 -352 0
FLAG -1248 -128 BP
FLAG -1248 256 0
FLAG -1152 48 VG
FLAG 176 -256 VG
FLAG 480 -512 BP
FLAG 400 -224 0
FLAG 400 -320 BP
FLAG 1072 -272 VG
FLAG 832 -16 BP
FLAG 736 -528 0
FLAG 736 -624 BP
FLAG 672 -560 VG
FLAG 1328 -112 0
FLAG 1328 -208 BP
FLAG 1232 -144 VG
FLAG 1744 -352 0
FLAG 1744 -256 BP
FLAG 1696 -48 0
FLAG 1120 -416 0
FLAG 1648 -32 0
FLAG 1648 64 BP
FLAG 1584 208 0
FLAG 2096 48 VG
FLAG 1488 -224 RMP
FLAG -464 1248 RMP
FLAG -1024 1664 LFO
FLAG -1024 1760 ARG
FLAG -656 2208 BP
FLAG -352 2208 BN
FLAG -1232 2144 BN
FLAG -464 1408 WNS
FLAG 272 1664 BN
FLAG 272 1552 BP
FLAG 1280 1952 BN
FLAG 1536 1952 BN
FLAG 960 1760 ARG
FLAG 1680 1600 A
FLAG 0 1664 VG
FLAG 80 1072 VG
FLAG -48 2176 VG
FLAG -1200 240 BN
FLAG 2368 1760 BN
FLAG 2368 1328 BP
FLAG 1984 1776 BN
FLAG 1984 1888 BP
FLAG 2592 1616 BN
FLAG 2592 1504 BP
FLAG 2512 1488 ARG
FLAG 2240 1440 J1-G
FLAG 2464 -752 A
FLAG 2864 -512 Line_Out
FLAG 3056 16 BP
FLAG 3504 -144 SPKR_OUT
FLAG 3504 -80 BN
FLAG 3536 -16 0
FLAG 4272 1184 BN
FLAG 4272 1072 BP
FLAG 4608 1808 BN
FLAG 3888 1520 BP
FLAG 3888 1216 BN
FLAG 3968 1904 BN
FLAG 4368 1280 B
FLAG 4848 1296 LFO
FLAG 4736 992 LFO-SQW
FLAG 4640 1536 LFO-EXP
FLAG 3472 -336 0
FLAG 3472 -496 fil
FLAG -656 1264 0
FLAG -1280 1664 0
FLAG 832 1888 0
FLAG 2560 -640 0
SYMBOL voltage 16 -480 R0
WINDOW 123 0 0 Left 0
WINDOW 39 0 0 Left 0
SYMATTR InstName V1
SYMATTR Value 3.5
SYMBOL voltage -960 16 R0
WINDOW 123 0 0 Left 0
WINDOW 39 0 0 Left 0
SYMATTR InstName V2
SYMATTR Value 9
SYMBOL cap -800 16 R0
SYMATTR InstName C1
SYMATTR Value 470µ
SYMBOL res 160 -480 R0
SYMATTR InstName R1
SYMATTR Value 75k
SYMBOL ZZZ\\OpAmp\\LM324 400 -272 R0
SYMATTR InstName U1
SYMBOL res 464 -400 R90
WINDOW 0 0 56 VBottom 2
WINDOW 3 32 56 VTop 2
SYMATTR InstName R2
SYMATTR Value 2k
SYMBOL res 464 -528 R90
WINDOW 0 0 56 VBottom 2
WINDOW 3 32 56 VTop 2
SYMATTR InstName R3
SYMATTR Value 270k
SYMBOL res -1216 96 R0
SYMATTR InstName R4
SYMATTR Value 4.7k
SYMBOL res -1216 -96 R0
SYMATTR InstName R5
SYMATTR Value 4.7k
SYMBOL cap -1312 112 R0
SYMATTR InstName C2
SYMATTR Value .1µ
SYMBOL cap -1312 -64 R0
SYMATTR InstName C3
SYMATTR Value .1µ
SYMBOL npn 768 -224 M180
SYMATTR InstName Q1
SYMBOL npn 1040 -224 R180
SYMATTR InstName Q2
SYMBOL res 896 -496 R0
SYMATTR InstName R6
SYMATTR Value 10k
SYMBOL res 816 -160 R0
SYMATTR InstName R7
SYMATTR Value 2Meg
SYMBOL ZZZ\\OpAmp\\LM324 736 -576 R0
SYMATTR InstName U2
SYMBOL cap 800 -720 R90
WINDOW 0 0 32 VBottom 2
WINDOW 3 32 32 VTop 2
SYMATTR InstName C4
SYMATTR Value 100p
SYMBOL ZZZ\\OpAmp\\LM324 1328 -160 R0
SYMATTR InstName U3
SYMBOL cap 1360 -336 R90
WINDOW 0 0 32 VBottom 2
WINDOW 3 32 32 VTop 2
SYMATTR InstName C5
SYMATTR Value 1n
SYMATTR SpiceLine ic=4.5
SYMBOL res 1600 -336 R90
WINDOW 0 0 56 VBottom 2
WINDOW 3 32 56 VTop 2
SYMATTR InstName R8
SYMATTR Value 10k
SYMBOL res 1808 -432 R90
WINDOW 0 0 56 VBottom 2
WINDOW 3 32 56 VTop 2
SYMATTR InstName R9
SYMATTR Value 300k
SYMBOL ZZZ\\OpAmp\\LM324 1744 -304 M180
SYMATTR InstName U4
SYMBOL voltage 1696 -176 R0
WINDOW 123 0 0 Left 0
WINDOW 39 0 0 Left 0
SYMATTR InstName V3
SYMATTR Value 5.4
SYMBOL diode 1792 -560 R90
WINDOW 0 0 32 VBottom 2
WINDOW 3 32 32 VTop 2
SYMATTR InstName D1
SYMATTR Value 1N914
SYMBOL res 1648 -560 R90
WINDOW 0 0 56 VBottom 2
WINDOW 3 32 56 VTop 2
SYMATTR InstName R10
SYMATTR Value 10k
SYMBOL res 1104 -544 R0
SYMATTR InstName R11
SYMATTR Value 2Meg
SYMBOL njf 1280 -528 M90
SYMATTR InstName J1
SYMATTR Value J2N5457
SYMBOL ZZZ\\OpAmp\\LM324 1648 16 M180
SYMATTR InstName U5
SYMBOL res 1584 -48 R90
WINDOW 0 0 56 VBottom 2
WINDOW 3 32 56 VTop 2
SYMATTR InstName R12
SYMATTR Value 10k
SYMBOL res 1584 48 R90
WINDOW 0 0 56 VBottom 2
WINDOW 3 32 56 VTop 2
SYMATTR InstName R13
SYMATTR Value 2Meg
SYMBOL cap 1568 112 R0
SYMATTR InstName C6
SYMATTR Value .1µ
SYMATTR SpiceLine IC=5.2
SYMBOL res 1872 0 R90
WINDOW 0 0 56 VBottom 2
WINDOW 3 32 56 VTop 2
SYMATTR InstName R14
SYMATTR Value 100k
SYMBOL res 2032 0 R90
WINDOW 0 0 56 VBottom 2
WINDOW 3 32 56 VTop 2
SYMATTR InstName R15
SYMATTR Value 10k
SYMBOL res -496 2032 R90
WINDOW 0 0 56 VBottom 2
WINDOW 3 32 56 VTop 2
SYMATTR InstName R16
SYMATTR Value 39k
SYMBOL res -192 2032 R90
WINDOW 0 0 56 VBottom 2
WINDOW 3 32 56 VTop 2
SYMATTR InstName R17
SYMATTR Value 39k
SYMBOL res -496 2192 R90
WINDOW 0 0 56 VBottom 2
WINDOW 3 32 56 VTop 2
SYMATTR InstName R18
SYMATTR Value 100k
SYMBOL res -192 2192 R90
WINDOW 0 0 56 VBottom 2
WINDOW 3 32 56 VTop 2
SYMATTR InstName R19
SYMATTR Value 100k
SYMBOL res -928 1792 R0
WINDOW 3 -283 74 Left 2
SYMATTR Value {VCFMOD*VCFMODdev/100}
SYMATTR InstName R20
SYMBOL res -928 1936 R0
WINDOW 3 -373 70 Left 2
SYMATTR Value {VCFMOD-VCFMOD*VCFMODdev/100}
SYMATTR InstName R21
SYMBOL res -1040 2128 R90
WINDOW 0 0 56 VBottom 2
WINDOW 3 32 56 VTop 2
SYMATTR InstName R22
SYMATTR Value 27K
SYMBOL njf -96 1984 R0
SYMATTR InstName J2
SYMATTR Value J2N5457
SYMBOL cap -112 1232 R90
WINDOW 0 0 32 VBottom 2
WINDOW 3 32 32 VTop 2
SYMATTR InstName C7
SYMATTR Value .1µ
SYMBOL res 64 1232 R90
WINDOW 0 0 56 VBottom 2
WINDOW 3 32 56 VTop 2
SYMATTR InstName R23
SYMATTR Value 4.7Meg
SYMBOL cap -112 1392 R90
WINDOW 0 0 32 VBottom 2
WINDOW 3 32 32 VTop 2
SYMATTR InstName C8
SYMATTR Value .1µ
SYMBOL res 64 1392 R90
WINDOW 0 0 56 VBottom 2
WINDOW 3 32 56 VTop 2
SYMATTR InstName R24
SYMATTR Value 3Meg
SYMBOL cap 256 1232 R90
WINDOW 0 0 32 VBottom 2
WINDOW 3 32 32 VTop 2
SYMATTR InstName C9
SYMATTR Value .001µ
SYMBOL res -80 928 R90
WINDOW 0 0 56 VBottom 2
WINDOW 3 32 56 VTop 2
SYMATTR InstName R25
SYMATTR Value 47k
SYMBOL res 224 1008 R90
WINDOW 0 0 56 VBottom 2
WINDOW 3 -210 26 VTop 2
SYMATTR InstName R26
SYMATTR Value {VCFCO-VCFCO*VCFCOdev/100}
SYMBOL res 368 1008 R90
WINDOW 0 0 56 VBottom 2
WINDOW 3 -181 139 VTop 2
SYMATTR InstName R27
SYMATTR Value {VCFCO*VCFCOdev/100}
SYMBOL res 592 1008 R90
WINDOW 0 0 56 VBottom 2
WINDOW 3 -209 41 VTop 2
SYMATTR InstName R28
SYMATTR Value {VCFRES-VCFRES*VCFRESdev/100}
SYMBOL res 720 1008 R90
WINDOW 0 0 56 VBottom 2
WINDOW 3 -179 182 VTop 2
SYMATTR InstName R29
SYMATTR Value {VCFRES*VCFRESdev/100}
SYMBOL cap 880 1232 R90
WINDOW 0 0 32 VBottom 2
WINDOW 3 32 32 VTop 2
SYMATTR InstName C10
SYMATTR Value .001µ
SYMBOL res 320 1392 R90
WINDOW 0 0 56 VBottom 2
WINDOW 3 32 56 VTop 2
SYMATTR InstName R30
SYMATTR Value 4.7Meg
SYMBOL ZZZ\\OpAmp\\LM324_AB 272 1536 R0
SYMATTR InstName U6
SYMBOL res -96 1520 R90
WINDOW 0 0 56 VBottom 2
WINDOW 3 32 56 VTop 2
SYMATTR InstName R31
SYMATTR Value 47k
SYMBOL njf 1216 1648 R270
WINDOW 3 69 68 Left 2
SYMATTR Value J2N5457
SYMATTR InstName J3
SYMBOL res 1264 1808 R0
SYMATTR InstName R32
SYMATTR Value 1Meg
SYMBOL res 1520 1808 R0
SYMATTR InstName R33
SYMATTR Value 100k
SYMBOL res 1136 1744 R90
WINDOW 0 0 56 VBottom 2
WINDOW 3 32 56 VTop 2
SYMATTR InstName R34
SYMATTR Value 470k
SYMBOL diode 2432 752 R90
WINDOW 0 0 32 VBottom 2
WINDOW 3 32 32 VTop 2
SYMATTR InstName D2
SYMATTR Value 1N4148
SYMBOL diode 2368 864 R270
WINDOW 0 32 32 VTop 2
WINDOW 3 0 32 VBottom 2
SYMATTR InstName D3
SYMATTR Value 1N4148
SYMBOL res 2592 912 R0
SYMATTR InstName R35
SYMATTR Value {attack*attackdev/100}
SYMBOL res 2592 1040 R0
SYMATTR InstName R36
SYMATTR Value {attack-attack*attackdev/100}
SYMBOL res 2928 912 R0
SYMATTR InstName R37
SYMATTR Value {release*releasedev/100}
SYMBOL res 2928 1040 R0
SYMATTR InstName R38
SYMATTR Value {release-release*releasedev/100}
SYMBOL res 1968 1296 R0
SYMATTR InstName R39
SYMATTR Value 820
SYMBOL res 2160 1456 R90
WINDOW 0 0 56 VBottom 2
WINDOW 3 32 56 VTop 2
SYMATTR InstName R40
SYMATTR Value 10k
SYMBOL cap 1968 1568 R0
SYMATTR InstName C11
SYMATTR Value 4.7µ
SYMATTR SpiceLine IC=2
SYMBOL res 2160 1712 R90
WINDOW 0 0 56 VBottom 2
WINDOW 3 32 56 VTop 2
SYMATTR InstName R41
SYMATTR Value 150k
SYMBOL res 2160 1872 R90
WINDOW 0 0 56 VBottom 2
WINDOW 3 32 56 VTop 2
SYMATTR InstName R42
SYMATTR Value 150k
SYMBOL njf 2320 1408 R0
SYMATTR InstName J4
SYMATTR Value J2N5457
SYMBOL res 2352 1552 R0
SYMATTR InstName R43
SYMATTR Value 4.7k
SYMBOL res 2640 1872 R90
WINDOW 0 0 56 VBottom 2
WINDOW 3 32 56 VTop 2
SYMATTR InstName R44
SYMATTR Value 100k
SYMBOL ZZZ\\OpAmp\\LM324_AB 2592 1488 R0
SYMATTR InstName U7
SYMBOL res 2448 -640 R0
SYMATTR InstName R45
SYMATTR Value 20k
SYMBOL res 2448 -480 R0
SYMATTR InstName R46
SYMATTR Value 80k
SYMBOL ZZZ\\Robertugo\\Lm386 2992 -144 R0
SYMATTR InstName U8
SYMBOL res 2768 -64 R0
SYMATTR InstName R47
SYMATTR Value 20k
SYMBOL cap 3040 -48 R90
WINDOW 0 0 32 VBottom 2
WINDOW 3 32 32 VTop 2
SYMATTR InstName C12
SYMATTR Value .1µ
SYMBOL cap 3088 -64 R0
SYMATTR InstName C13
SYMATTR Value 10µ
SYMBOL cap 3200 -112 R0
SYMATTR InstName C14
SYMATTR Value .047µ
SYMBOL res 3200 -48 R0
SYMATTR InstName R48
SYMATTR Value 10
SYMBOL cap 3408 -160 R90
WINDOW 0 0 32 VBottom 2
WINDOW 3 32 32 VTop 2
SYMATTR InstName C15
SYMATTR Value 220µ
SYMBOL res 2752 -272 R0
SYMATTR InstName R49
SYMATTR Value 100k
SYMBOL cap 2656 -528 R90
WINDOW 0 0 32 VBottom 2
WINDOW 3 32 32 VTop 2
SYMATTR InstName C16
SYMATTR Value 1µ
SYMBOL res 3696 -160 R0
SYMATTR InstName R50
SYMATTR Value 8
SYMBOL cap 3072 -304 R90
WINDOW 0 0 32 VBottom 2
WINDOW 3 32 32 VTop 2
SYMATTR InstName C17
SYMATTR Value 10µ
SYMBOL cap 3952 1120 R0
SYMATTR InstName C18
SYMATTR Value 1µ
SYMBOL res 3952 1248 R0
SYMATTR InstName R51
SYMATTR Value 100k
SYMBOL res 3952 1392 R0
SYMATTR InstName R52
SYMATTR Value 100k
SYMBOL res 3952 1552 R0
SYMATTR InstName R53
SYMATTR Value 3k
SYMBOL cap 3952 1792 R0
SYMATTR InstName C19
SYMATTR Value 470µ
SYMBOL res 4192 1680 R90
WINDOW 0 0 56 VBottom 2
WINDOW 3 32 56 VTop 2
SYMATTR InstName R54
SYMATTR Value 3k
SYMBOL diode 4336 1712 R270
WINDOW 0 32 32 VTop 2
WINDOW 3 0 32 VBottom 2
SYMATTR InstName D4
SYMATTR Value 1N4148
SYMBOL res 4224 1360 R90
WINDOW 0 0 56 VBottom 2
WINDOW 3 32 56 VTop 2
SYMATTR InstName R55
SYMATTR Value 100k
SYMBOL res 4032 832 R90
WINDOW 0 0 56 VBottom 2
WINDOW 3 32 56 VTop 2
SYMATTR InstName R56
SYMATTR Value 3k
SYMBOL res 4272 832 R90
WINDOW 0 0 56 VBottom 2
WINDOW 3 41 54 VTop 2
SYMATTR InstName R57
SYMATTR Value {lfopot*lfopotdev/100}
SYMBOL res 4400 832 R90
WINDOW 0 0 56 VBottom 2
WINDOW 3 74 44 VTop 2
SYMATTR InstName R58
SYMATTR Value {lfopot-lfopot*lfopotdev/100}
SYMBOL cap 4592 1664 R0
SYMATTR InstName C20
SYMATTR Value 1µ
SYMBOL res 4432 1520 R90
WINDOW 0 0 56 VBottom 2
WINDOW 3 32 56 VTop 2
SYMATTR InstName R59
SYMATTR Value 20k
SYMBOL ZZZ\\OpAmp\\LM324_AB 4272 1056 R0
SYMATTR InstName U9
SYMBOL bv 3472 -464 R0
SYMATTR InstName B1
SYMATTR Value V=(1/2.66)*V(SPKR_OUT)
SYMBOL bv -656 1168 R0
SYMATTR InstName B2
SYMATTR Value V=V(RMP)
SYMBOL bv -1280 1568 R0
SYMATTR InstName B3
SYMATTR Value V=V(LFO)
SYMBOL bv 832 1792 R0
SYMATTR InstName B4
SYMATTR Value V=v(arg)
SYMBOL bv 2560 -736 R0
SYMATTR InstName B5
SYMATTR Value V=V(A)
TEXT -1312 280 Left 2 !.tran 2 startup
TEXT -504 296 Left 2 !.MODEL J2N5457 NJF(Beta=1.125m Betatce=-500m Rd=1 Rs=1 Lambda=2.3m Vto=-1.372 Vtotc=-2.5m Is=181.3f Isr=1.747p N=1 Nr=2 Xti=3 Alpha=2.543u Vk=152.2 Cgd=4p M=311.4m Pb=500m Fc=500m Cgs=4.627p Kf=1.045e-002f Af=1)
TEXT -984 1696 Left 2 ;VCF Mod Source Select
TEXT 104 776 Left 2 !.param VCFCO 100k
TEXT -40 696 Left 2 !.param VCFCOdev 80
TEXT 432 776 Left 2 !.param VCFRES 100k
TEXT -40 672 Left 2 !.param VCFRESdev 80
TEXT -792 1624 Left 2 !.param VCFMOD 100k
TEXT -792 1648 Left 2 !.param VCFMODdev 50
TEXT 2552 832 Left 2 ;Attack Time
TEXT 2888 752 Left 2 ;Release Time
TEXT 3160 728 Left 2 !.param attack 1meg
TEXT 3160 760 Left 2 !.param attackdev=5
TEXT 3160 792 Left 2 !.param release 1meg
TEXT 3160 824 Left 2 !.param releasedev 5
TEXT 3088 864 Left 2 !;.step param attackdev 10 100 5
TEXT 3088 904 Left 2 !;.step param releasedev 10 100 5
TEXT 2008 728 Left 2 ;Manual or Auto
TEXT 2160 1360 Left 2 !.ic V(J1-G)=0
TEXT 4544 1296 Left 2 ;Switch
TEXT 4496 816 Left 2 ;Switch
TEXT 4224 648 Left 2 !.param lfopot 1meg
TEXT 4224 680 Left 2 !.param lfopotdev 10
TEXT 4520 1064 Left 2 ;It seems like I can just delete C8
TEXT 3560 -416 Left 2 !.wave e:\\spice\\synth.wav 16 44.1K V(fil)
TEXT 2352 -896 Left 2 ;AUDIO AMPLIFIER
TEXT -1384 512 Left 2 ;VOLTAGE CONTROLLED FILTER
TEXT 1904 544 Left 2 ;ATTACK ENVELOPE RELEASE GENERATOR
TEXT 3744 544 Left 2 ;LOW FREQUENCY OSCILLATOR
TEXT -1376 -240 Left 2 ;POWER SUPPLY
TEXT -536 -856 Left 2 ;VOLTAGE CONTROLLED OSCILLATOR
